Version 4.1
SHEET 1 880 680
WIRE -96 80 -208 80
WIRE 16 80 -16 80
WIRE 144 80 16 80
WIRE 224 80 144 80
WIRE 288 80 224 80
WIRE -208 96 -208 80
WIRE 16 96 16 80
WIRE 224 112 224 80
WIRE 144 128 144 80
WIRE -16 144 -112 144
WIRE -208 192 -208 176
WIRE 144 208 144 192
WIRE 224 208 224 192
WIRE -112 256 -112 144
WIRE -96 256 -112 256
WIRE -16 272 -16 144
WIRE -16 272 -32 272
WIRE 16 272 16 160
WIRE 16 272 -16 272
WIRE -640 288 -672 288
WIRE -544 288 -560 288
WIRE -256 288 -272 288
WIRE -144 288 -176 288
WIRE -96 288 -144 288
WIRE -672 304 -672 288
WIRE -144 320 -144 288
WIRE -640 416 -672 416
WIRE -544 416 -560 416
WIRE -144 416 -144 400
WIRE -672 432 -672 416
WIRE -640 544 -672 544
WIRE -544 544 -560 544
WIRE -672 560 -672 544
FLAG -208 192 0
FLAG 144 208 0
FLAG -672 304 0
FLAG -144 416 0
FLAG -544 288 +5V
IOPIN -544 288 Out
FLAG -272 288 +5V
IOPIN -272 288 In
FLAG 288 80 GPIO14
IOPIN 288 80 Out
FLAG -672 432 0
FLAG -672 560 0
FLAG -544 416 +12V
IOPIN -544 416 Out
FLAG -544 544 -12V
IOPIN -544 544 Out
FLAG -64 240 +12V
IOPIN -64 240 In
FLAG -64 304 -12V
IOPIN -64 304 In
FLAG 224 208 0
SYMBOL res 0 64 R90
WINDOW 0 0 56 VBottom 2
WINDOW 3 32 56 VTop 2
SYMATTR InstName R1
SYMATTR Value 50k
SYMBOL diode 0 96 R0
SYMATTR InstName D1
SYMATTR Value 1N4148
SYMBOL diode 160 192 R180
WINDOW 0 24 64 Left 2
WINDOW 3 24 0 Left 2
SYMATTR InstName D2
SYMATTR Value 1N4148
SYMBOL Misc\\signal -208 80 R0
WINDOW 3 24 104 Invisible 2
WINDOW 123 0 0 Left 0
WINDOW 39 0 0 Left 0
SYMATTR Value PULSE(0 5 1ms 1us 1us 5ms 50ms)
SYMATTR InstName V1
SYMBOL voltage -544 288 R90
WINDOW 123 0 0 Left 0
WINDOW 39 0 0 Left 0
SYMATTR InstName V2
SYMATTR Value 5
SYMBOL res -160 272 R90
WINDOW 0 0 56 VBottom 2
WINDOW 3 32 56 VTop 2
SYMATTR InstName R2
SYMATTR Value 100k
SYMBOL res -128 416 R180
WINDOW 0 36 76 Left 2
WINDOW 3 36 40 Left 2
SYMATTR InstName R3
SYMATTR Value 100k
SYMBOL voltage -544 416 R90
WINDOW 0 -32 56 VBottom 2
WINDOW 3 32 56 VTop 2
WINDOW 123 0 0 Left 0
WINDOW 39 0 0 Left 0
SYMATTR InstName V3
SYMATTR Value 12
SYMBOL voltage -656 544 R270
WINDOW 0 32 56 VTop 2
WINDOW 3 -32 56 VBottom 2
WINDOW 123 0 0 Left 0
WINDOW 39 0 0 Left 0
SYMATTR InstName V4
SYMATTR Value 12
SYMBOL OpAmps\\TL072 -64 208 R0
SYMATTR InstName U1
SYMBOL res 208 96 R0
SYMATTR InstName R4_Internal_Pulldown
SYMATTR Value 50k
TEXT -136 480 Left 2 !.tran 100ms startup
TEXT -240 48 Left 2 ;CLK In
