Version 4.1
SHEET 1 880 680
WIRE -96 80 -208 80
WIRE 16 80 -16 80
WIRE 144 80 16 80
WIRE 176 80 144 80
WIRE -208 96 -208 80
WIRE 16 96 16 80
WIRE 144 128 144 80
WIRE -208 192 -208 176
WIRE -144 272 -208 272
WIRE -32 272 -64 272
WIRE 16 272 16 160
WIRE 16 272 -32 272
WIRE -640 288 -672 288
WIRE -672 304 -672 288
WIRE -32 304 -32 272
WIRE 144 336 144 192
FLAG -208 192 0
FLAG 144 336 0
FLAG -672 304 0
FLAG -32 384 0
FLAG -560 288 +5V
IOPIN -560 288 Out
FLAG -208 272 +5V
IOPIN -208 272 In
FLAG 176 80 GPIO14
IOPIN 176 80 Out
SYMBOL res 0 64 R90
WINDOW 0 0 56 VBottom 2
WINDOW 3 32 56 VTop 2
SYMATTR InstName R1
SYMATTR Value 100k
SYMBOL diode 0 96 R0
SYMATTR InstName D1
SYMATTR Value 1N4148
SYMBOL diode 160 192 R180
WINDOW 0 24 64 Left 2
WINDOW 3 24 0 Left 2
SYMATTR InstName D2
SYMATTR Value 1N4148
SYMBOL Misc\\signal -208 80 R0
WINDOW 3 24 104 Invisible 2
WINDOW 123 0 0 Left 0
WINDOW 39 0 0 Left 0
SYMATTR Value PULSE(0 7 1ms 1us 1us 5ms 50ms)
SYMATTR InstName V1
SYMBOL voltage -544 288 R90
WINDOW 123 0 0 Left 0
WINDOW 39 0 0 Left 0
SYMATTR InstName V2
SYMATTR Value 5
SYMBOL res -48 256 R90
WINDOW 0 0 56 VBottom 2
WINDOW 3 32 56 VTop 2
SYMATTR InstName R2
SYMATTR Value 100k
SYMBOL res -16 400 R180
WINDOW 0 36 76 Left 2
WINDOW 3 36 40 Left 2
SYMATTR InstName R3
SYMATTR Value 47k
TEXT -136 480 Left 2 !.tran 100ms startup
TEXT -240 48 Left 2 ;CLK In
